# generated using pymatgen
data_Zn3H30(C27O16)2
_symmetry_space_group_name_H-M   'P 1'
_cell_length_a   16.70574000
_cell_length_b   16.70574000
_cell_length_c   14.34185000
_cell_angle_alpha   90.00000000
_cell_angle_beta   90.00000000
_cell_angle_gamma   120.00000000
_symmetry_Int_Tables_number   1
_chemical_formula_structural   Zn3H30(C27O16)2
_chemical_formula_sum   'Zn6 H60 C108 O64'
_cell_volume   3466.30875115
_cell_formula_units_Z   2
loop_
 _symmetry_equiv_pos_site_id
 _symmetry_equiv_pos_as_xyz
  1  'x, y, z'
loop_
 _atom_site_type_symbol
 _atom_site_label
 _atom_site_symmetry_multiplicity
 _atom_site_fract_x
 _atom_site_fract_y
 _atom_site_fract_z
 _atom_site_occupancy
  O  O0  1  0.50000000  0.50000000  0.00000000  1
  O  O1  1  0.50000000  0.00000000  0.00000000  1
  O  O2  1  0.00000000  0.50000000  0.00000000  1
  O  O3  1  0.50000000  0.50000000  0.50000000  1
  O  O4  1  0.00000000  0.50000000  0.50000000  1
  O  O5  1  0.50000000  0.00000000  0.50000000  1
  O  O6  1  0.56720000  0.53820000  0.06421900  1
  O  O7  1  0.46180000  0.02900000  0.06421900  1
  O  O8  1  0.97100000  0.43280000  0.06421900  1
  O  O9  1  0.46180000  0.43280000  0.43578100  1
  O  O10  1  0.97100000  0.53820000  0.43578100  1
  O  O11  1  0.56720000  0.02900000  0.43578100  1
  O  O12  1  0.43280000  0.46180000  0.93578100  1
  O  O13  1  0.53820000  0.97100000  0.93578100  1
  O  O14  1  0.02900000  0.56720000  0.93578100  1
  O  O15  1  0.53820000  0.56720000  0.56421900  1
  O  O16  1  0.02900000  0.46180000  0.56421900  1
  O  O17  1  0.43280000  0.97100000  0.56421900  1
  O  O18  1  0.24851800  0.49740000  0.25000000  1
  O  O19  1  0.50260000  0.75111800  0.25000000  1
  O  O20  1  0.24888200  0.75148200  0.25000000  1
  O  O21  1  0.75148200  0.50260000  0.75000000  1
  O  O22  1  0.49740000  0.24888200  0.75000000  1
  O  O23  1  0.75111800  0.24851800  0.75000000  1
  C  C24  1  0.51094000  0.29984000  0.10635000  1
  C  C25  1  0.70016000  0.21110000  0.10635000  1
  C  C26  1  0.78890000  0.48906000  0.10635000  1
  C  C27  1  0.70016000  0.48906000  0.39365000  1
  C  C28  1  0.78890000  0.29984000  0.39365000  1
  C  C29  1  0.51094000  0.21110000  0.39365000  1
  C  C30  1  0.48906000  0.70016000  0.89365000  1
  C  C31  1  0.29984000  0.78890000  0.89365000  1
  C  C32  1  0.21110000  0.51094000  0.89365000  1
  C  C33  1  0.29984000  0.51094000  0.60635000  1
  C  C34  1  0.21110000  0.70016000  0.60635000  1
  C  C35  1  0.48906000  0.78890000  0.60635000  1
  C  C36  1  0.41054000  0.27044000  0.11514000  1
  C  C37  1  0.72956000  0.14010000  0.11514000  1
  C  C38  1  0.85990000  0.58946000  0.11514000  1
  C  C39  1  0.72956000  0.58946000  0.38486000  1
  C  C40  1  0.85990000  0.27044000  0.38486000  1
  C  C41  1  0.41054000  0.14010000  0.38486000  1
  C  C42  1  0.58946000  0.72956000  0.88486000  1
  C  C43  1  0.27044000  0.85990000  0.88486000  1
  C  C44  1  0.14010000  0.41054000  0.88486000  1
  C  C45  1  0.27044000  0.41054000  0.61514000  1
  C  C46  1  0.14010000  0.72956000  0.61514000  1
  C  C47  1  0.58946000  0.85990000  0.61514000  1
  C  C48  1  0.35124000  0.22504000  0.04094000  1
  C  C49  1  0.77496000  0.12620000  0.04094000  1
  C  C50  1  0.87380000  0.64876000  0.04094000  1
  C  C51  1  0.77496000  0.64876000  0.45906000  1
  C  C52  1  0.87380000  0.22504000  0.45906000  1
  C  C53  1  0.35124000  0.12620000  0.45906000  1
  C  C54  1  0.64876000  0.77496000  0.95906000  1
  C  C55  1  0.22504000  0.87380000  0.95906000  1
  C  C56  1  0.12620000  0.35124000  0.95906000  1
  C  C57  1  0.22504000  0.35124000  0.54094000  1
  C  C58  1  0.12620000  0.77496000  0.54094000  1
  C  C59  1  0.64876000  0.87380000  0.54094000  1
  H  H60  1  0.37430000  0.21380000  0.98480000  1
  H  H61  1  0.78620000  0.16050000  0.98480000  1
  H  H62  1  0.83950000  0.62570000  0.98480000  1
  H  H63  1  0.78620000  0.62570000  0.51520000  1
  H  H64  1  0.83950000  0.21380000  0.51520000  1
  H  H65  1  0.37430000  0.16050000  0.51520000  1
  H  H66  1  0.62570000  0.78620000  0.01520000  1
  H  H67  1  0.21380000  0.83950000  0.01520000  1
  H  H68  1  0.16050000  0.37430000  0.01520000  1
  H  H69  1  0.21380000  0.37430000  0.48480000  1
  H  H70  1  0.16050000  0.78620000  0.48480000  1
  H  H71  1  0.62570000  0.83950000  0.48480000  1
  C  C72  1  0.25844000  0.19634000  0.04954000  1
  C  C73  1  0.80366000  0.06210000  0.04954000  1
  C  C74  1  0.93790000  0.74156000  0.04954000  1
  C  C75  1  0.80366000  0.74156000  0.45046000  1
  C  C76  1  0.93790000  0.19634000  0.45046000  1
  C  C77  1  0.25844000  0.06210000  0.45046000  1
  C  C78  1  0.74156000  0.80366000  0.95046000  1
  C  C79  1  0.19634000  0.93790000  0.95046000  1
  C  C80  1  0.06210000  0.25844000  0.95046000  1
  C  C81  1  0.19634000  0.25844000  0.54954000  1
  C  C82  1  0.06210000  0.80366000  0.54954000  1
  C  C83  1  0.74156000  0.93790000  0.54954000  1
  H  H84  1  0.21750000  0.16580000  0.99890000  1
  H  H85  1  0.83420000  0.05170000  0.99890000  1
  H  H86  1  0.94830000  0.78250000  0.99890000  1
  H  H87  1  0.83420000  0.78250000  0.50110000  1
  H  H88  1  0.94830000  0.16580000  0.50110000  1
  H  H89  1  0.21750000  0.05170000  0.50110000  1
  H  H90  1  0.78250000  0.83420000  0.00110000  1
  H  H91  1  0.16580000  0.94830000  0.00110000  1
  H  H92  1  0.05170000  0.21750000  0.00110000  1
  H  H93  1  0.16580000  0.21750000  0.49890000  1
  H  H94  1  0.05170000  0.83420000  0.49890000  1
  H  H95  1  0.78250000  0.94830000  0.49890000  1
  C  C96  1  0.22504000  0.21164000  0.13084000  1
  C  C97  1  0.78836000  0.01340000  0.13084000  1
  C  C98  1  0.98660000  0.77496000  0.13084000  1
  C  C99  1  0.78836000  0.77496000  0.36916000  1
  C  C100  1  0.98660000  0.21164000  0.36916000  1
  C  C101  1  0.22504000  0.01340000  0.36916000  1
  C  C102  1  0.77496000  0.78836000  0.86916000  1
  C  C103  1  0.21164000  0.98660000  0.86916000  1
  C  C104  1  0.01340000  0.22504000  0.86916000  1
  C  C105  1  0.21164000  0.22504000  0.63084000  1
  C  C106  1  0.01340000  0.78836000  0.63084000  1
  C  C107  1  0.77496000  0.98660000  0.63084000  1
  C  C108  1  0.28384000  0.25854000  0.20464000  1
  C  C109  1  0.74146000  0.02530000  0.20464000  1
  C  C110  1  0.97470000  0.71616000  0.20464000  1
  C  C111  1  0.74146000  0.71616000  0.29536000  1
  C  C112  1  0.97470000  0.25854000  0.29536000  1
  C  C113  1  0.28384000  0.02530000  0.29536000  1
  C  C114  1  0.71616000  0.74146000  0.79536000  1
  C  C115  1  0.25854000  0.97470000  0.79536000  1
  C  C116  1  0.02530000  0.28384000  0.79536000  1
  C  C117  1  0.25854000  0.28384000  0.70464000  1
  C  C118  1  0.02530000  0.74146000  0.70464000  1
  C  C119  1  0.71616000  0.97470000  0.70464000  1
  H  H120  1  0.26070000  0.27060000  0.26020000  1
  H  H121  1  0.72940000  0.99010000  0.26020000  1
  H  H122  1  0.00990000  0.73930000  0.26020000  1
  H  H123  1  0.72940000  0.73930000  0.23980000  1
  H  H124  1  0.00990000  0.27060000  0.23980000  1
  H  H125  1  0.26070000  0.99010000  0.23980000  1
  H  H126  1  0.73930000  0.72940000  0.73980000  1
  H  H127  1  0.27060000  0.00990000  0.73980000  1
  H  H128  1  0.99010000  0.26070000  0.73980000  1
  H  H129  1  0.27060000  0.26070000  0.76020000  1
  H  H130  1  0.99010000  0.72940000  0.76020000  1
  H  H131  1  0.73930000  0.00990000  0.76020000  1
  C  C132  1  0.37674000  0.28724000  0.19544000  1
  C  C133  1  0.71276000  0.08950000  0.19544000  1
  C  C134  1  0.91050000  0.62326000  0.19544000  1
  C  C135  1  0.71276000  0.62326000  0.30456000  1
  C  C136  1  0.91050000  0.28724000  0.30456000  1
  C  C137  1  0.37674000  0.08950000  0.30456000  1
  C  C138  1  0.62326000  0.71276000  0.80456000  1
  C  C139  1  0.28724000  0.91050000  0.80456000  1
  C  C140  1  0.08950000  0.37674000  0.80456000  1
  C  C141  1  0.28724000  0.37674000  0.69544000  1
  C  C142  1  0.08950000  0.71276000  0.69544000  1
  C  C143  1  0.62326000  0.91050000  0.69544000  1
  H  H144  1  0.41770000  0.31890000  0.24540000  1
  H  H145  1  0.68110000  0.09880000  0.24540000  1
  H  H146  1  0.90120000  0.58230000  0.24540000  1
  H  H147  1  0.68110000  0.58230000  0.25460000  1
  H  H148  1  0.90120000  0.31890000  0.25460000  1
  H  H149  1  0.41770000  0.09880000  0.25460000  1
  H  H150  1  0.58230000  0.68110000  0.75460000  1
  H  H151  1  0.31890000  0.90120000  0.75460000  1
  H  H152  1  0.09880000  0.41770000  0.75460000  1
  H  H153  1  0.31890000  0.41770000  0.74540000  1
  H  H154  1  0.09880000  0.68110000  0.74540000  1
  H  H155  1  0.58230000  0.90120000  0.74540000  1
  C  C156  1  0.06884000  0.09104000  0.13463000  1
  C  C157  1  0.90896000  0.97780000  0.13463000  1
  C  C158  1  0.02220000  0.93116000  0.13463000  1
  C  C159  1  0.90896000  0.93116000  0.36537000  1
  C  C160  1  0.02220000  0.09104000  0.36537000  1
  C  C161  1  0.06884000  0.97780000  0.36537000  1
  C  C162  1  0.93116000  0.90896000  0.86537000  1
  C  C163  1  0.09104000  0.02220000  0.86537000  1
  C  C164  1  0.97780000  0.06884000  0.86537000  1
  C  C165  1  0.09104000  0.06884000  0.63463000  1
  C  C166  1  0.97780000  0.90896000  0.63463000  1
  C  C167  1  0.93116000  0.02220000  0.63463000  1
  C  C168  1  0.97686000  0.07034000  0.13493000  1
  C  C169  1  0.92966000  0.90652000  0.13493000  1
  C  C170  1  0.09348000  0.02314000  0.13493000  1
  C  C171  1  0.92966000  0.02314000  0.36507000  1
  C  C172  1  0.09348000  0.07034000  0.36507000  1
  C  C173  1  0.97686000  0.90652000  0.36507000  1
  C  C174  1  0.02314000  0.92966000  0.86507000  1
  C  C175  1  0.07034000  0.09348000  0.86507000  1
  C  C176  1  0.90652000  0.97686000  0.86507000  1
  C  C177  1  0.07034000  0.97686000  0.63493000  1
  C  C178  1  0.90652000  0.92966000  0.63493000  1
  C  C179  1  0.02314000  0.09348000  0.63493000  1
  H  H180  1  0.96150000  0.11790000  0.13530000  1
  H  H181  1  0.88210000  0.84360000  0.13530000  1
  H  H182  1  0.15640000  0.03850000  0.13530000  1
  H  H183  1  0.88210000  0.03850000  0.36470000  1
  H  H184  1  0.15640000  0.11790000  0.36470000  1
  H  H185  1  0.96150000  0.84360000  0.36470000  1
  H  H186  1  0.03850000  0.88210000  0.86470000  1
  H  H187  1  0.11790000  0.15640000  0.86470000  1
  H  H188  1  0.84360000  0.96150000  0.86470000  1
  H  H189  1  0.11790000  0.96150000  0.63530000  1
  H  H190  1  0.84360000  0.88210000  0.63530000  1
  H  H191  1  0.03850000  0.15640000  0.63530000  1
  Zn  Zn192  1  0.66670000  0.33330000  0.25000000  1
  Zn  Zn193  1  0.33330000  0.66670000  0.75000000  1
  Zn  Zn194  1  0.66670000  0.33330000  0.00425900  1
  Zn  Zn195  1  0.66670000  0.33330000  0.49574100  1
  Zn  Zn196  1  0.33330000  0.66670000  0.99574100  1
  Zn  Zn197  1  0.33330000  0.66670000  0.50425900  1
  O  O198  1  0.56253000  0.33713000  0.17364000  1
  O  O199  1  0.66287000  0.22540000  0.17364000  1
  O  O200  1  0.77460000  0.43747000  0.17364000  1
  O  O201  1  0.66287000  0.43747000  0.32636000  1
  O  O202  1  0.77460000  0.33713000  0.32636000  1
  O  O203  1  0.56253000  0.22540000  0.32636000  1
  O  O204  1  0.43747000  0.66287000  0.82636000  1
  O  O205  1  0.33713000  0.77460000  0.82636000  1
  O  O206  1  0.22540000  0.56253000  0.82636000  1
  O  O207  1  0.33713000  0.56253000  0.67364000  1
  O  O208  1  0.22540000  0.66287000  0.67364000  1
  O  O209  1  0.43747000  0.77460000  0.67364000  1
  O  O210  1  0.53723000  0.28553000  0.02754000  1
  O  O211  1  0.71447000  0.25170000  0.02754000  1
  O  O212  1  0.74830000  0.46277000  0.02754000  1
  O  O213  1  0.71447000  0.46277000  0.47246000  1
  O  O214  1  0.74830000  0.28553000  0.47246000  1
  O  O215  1  0.53723000  0.25170000  0.47246000  1
  O  O216  1  0.46277000  0.71447000  0.97246000  1
  O  O217  1  0.28553000  0.74830000  0.97246000  1
  O  O218  1  0.25170000  0.53723000  0.97246000  1
  O  O219  1  0.28553000  0.53723000  0.52754000  1
  O  O220  1  0.25170000  0.71447000  0.52754000  1
  O  O221  1  0.46277000  0.74830000  0.52754000  1
  O  O222  1  0.13223000  0.18423000  0.14113000  1
  O  O223  1  0.81577000  0.94800000  0.14113000  1
  O  O224  1  0.05200000  0.86777000  0.14113000  1
  O  O225  1  0.81577000  0.86777000  0.35887000  1
  O  O226  1  0.05200000  0.18423000  0.35887000  1
  O  O227  1  0.13223000  0.94800000  0.35887000  1
  O  O228  1  0.86777000  0.81577000  0.85887000  1
  O  O229  1  0.18423000  0.05200000  0.85887000  1
  O  O230  1  0.94800000  0.13223000  0.85887000  1
  O  O231  1  0.18423000  0.13223000  0.64113000  1
  O  O232  1  0.94800000  0.81577000  0.64113000  1
  O  O233  1  0.86777000  0.05200000  0.64113000  1
  O  O234  1  0.66670000  0.33330000  0.86688800  1
  O  O235  1  0.66670000  0.33330000  0.63311200  1
  O  O236  1  0.33330000  0.66670000  0.13311200  1
  O  O237  1  0.33330000  0.66670000  0.36688800  1
