# generated using pymatgen
data_Fe3H9(C3O2)8
_symmetry_space_group_name_H-M   'P 1'
_cell_length_a   20.97240000
_cell_length_b   37.49670000
_cell_length_c   10.81420000
_cell_angle_alpha   90.00000000
_cell_angle_beta   90.00000000
_cell_angle_gamma   90.00000000
_symmetry_Int_Tables_number   1
_chemical_formula_structural   Fe3H9(C3O2)8
_chemical_formula_sum   'Fe24 H72 C192 O128'
_cell_volume   8504.24136390
_cell_formula_units_Z   8
loop_
 _symmetry_equiv_pos_site_id
 _symmetry_equiv_pos_as_xyz
  1  'x, y, z'
loop_
 _atom_site_type_symbol
 _atom_site_label
 _atom_site_symmetry_multiplicity
 _atom_site_fract_x
 _atom_site_fract_y
 _atom_site_fract_z
 _atom_site_occupancy
  Fe  Fe0  1  0.20074700  0.09261400  0.86946130  1
  Fe  Fe1  1  0.79925300  0.40738600  0.86946130  1
  Fe  Fe2  1  0.79925300  0.59261400  0.13053870  1
  Fe  Fe3  1  0.20074700  0.90738600  0.13053870  1
  Fe  Fe4  1  0.70074700  0.59261400  0.36946130  1
  Fe  Fe5  1  0.29925300  0.90738600  0.36946130  1
  Fe  Fe6  1  0.29925300  0.09261400  0.63053870  1
  Fe  Fe7  1  0.70074700  0.40738600  0.63053870  1
  Fe  Fe8  1  0.79925300  0.90738600  0.13053870  1
  Fe  Fe9  1  0.20074700  0.59261400  0.13053870  1
  Fe  Fe10  1  0.20074700  0.40738600  0.86946130  1
  Fe  Fe11  1  0.79925300  0.09261400  0.86946130  1
  Fe  Fe12  1  0.29925300  0.40738600  0.63053870  1
  Fe  Fe13  1  0.70074700  0.09261400  0.63053870  1
  Fe  Fe14  1  0.70074700  0.90738600  0.36946130  1
  Fe  Fe15  1  0.29925300  0.59261400  0.36946130  1
  Fe  Fe16  1  0.25000000  0.16828600  0.75000000  1
  Fe  Fe17  1  0.75000000  0.33171400  0.75000000  1
  Fe  Fe18  1  0.75000000  0.66828600  0.25000000  1
  Fe  Fe19  1  0.25000000  0.83171400  0.25000000  1
  Fe  Fe20  1  0.75000000  0.83171400  0.25000000  1
  Fe  Fe21  1  0.25000000  0.66828600  0.25000000  1
  Fe  Fe22  1  0.25000000  0.33171400  0.75000000  1
  Fe  Fe23  1  0.75000000  0.16828600  0.75000000  1
  O  O24  1  0.23118000  0.17204000  0.57351200  1
  O  O25  1  0.76882000  0.32796000  0.57351200  1
  O  O26  1  0.76882000  0.67204000  0.42648800  1
  O  O27  1  0.23118000  0.82796000  0.42648800  1
  O  O28  1  0.73118000  0.67204000  0.07351200  1
  O  O29  1  0.26882000  0.82796000  0.07351200  1
  O  O30  1  0.26882000  0.17204000  0.92648800  1
  O  O31  1  0.73118000  0.32796000  0.92648800  1
  O  O32  1  0.76882000  0.82796000  0.42648800  1
  O  O33  1  0.23118000  0.67204000  0.42648800  1
  O  O34  1  0.23118000  0.32796000  0.57351200  1
  O  O35  1  0.76882000  0.17204000  0.57351200  1
  O  O36  1  0.26882000  0.32796000  0.92648800  1
  O  O37  1  0.73118000  0.17204000  0.92648800  1
  O  O38  1  0.73118000  0.82796000  0.07351200  1
  O  O39  1  0.26882000  0.67204000  0.07351200  1
  O  O40  1  0.26464000  0.12262000  0.48377000  1
  O  O41  1  0.73536000  0.37738000  0.48377000  1
  O  O42  1  0.73536000  0.62262000  0.51623000  1
  O  O43  1  0.26464000  0.87738000  0.51623000  1
  O  O44  1  0.76464000  0.62262000  0.98377000  1
  O  O45  1  0.23536000  0.87738000  0.98377000  1
  O  O46  1  0.23536000  0.12262000  0.01623000  1
  O  O47  1  0.76464000  0.37738000  0.01623000  1
  O  O48  1  0.73536000  0.87738000  0.51623000  1
  O  O49  1  0.26464000  0.62262000  0.51623000  1
  O  O50  1  0.26464000  0.37738000  0.48377000  1
  O  O51  1  0.73536000  0.12262000  0.48377000  1
  O  O52  1  0.23536000  0.37738000  0.01623000  1
  O  O53  1  0.76464000  0.12262000  0.01623000  1
  O  O54  1  0.76464000  0.87738000  0.98377000  1
  O  O55  1  0.23536000  0.62262000  0.98377000  1
  O  O56  1  0.33835000  0.17323000  0.72101300  1
  O  O57  1  0.66165000  0.32677000  0.72101300  1
  O  O58  1  0.66165000  0.67323000  0.27898700  1
  O  O59  1  0.33835000  0.82677000  0.27898700  1
  O  O60  1  0.83835000  0.67323000  0.22101300  1
  O  O61  1  0.16165000  0.82677000  0.22101300  1
  O  O62  1  0.16165000  0.17323000  0.77898700  1
  O  O63  1  0.83835000  0.32677000  0.77898700  1
  O  O64  1  0.66165000  0.82677000  0.27898700  1
  O  O65  1  0.33835000  0.67323000  0.27898700  1
  O  O66  1  0.33835000  0.32677000  0.72101300  1
  O  O67  1  0.66165000  0.17323000  0.72101300  1
  O  O68  1  0.16165000  0.32677000  0.77898700  1
  O  O69  1  0.83835000  0.17323000  0.77898700  1
  O  O70  1  0.83835000  0.82677000  0.22101300  1
  O  O71  1  0.16165000  0.67323000  0.22101300  1
  O  O72  1  0.37684000  0.12402000  0.63587000  1
  O  O73  1  0.62316000  0.37598000  0.63587000  1
  O  O74  1  0.62316000  0.62402000  0.36413000  1
  O  O75  1  0.37684000  0.87598000  0.36413000  1
  O  O76  1  0.87684000  0.62402000  0.13587000  1
  O  O77  1  0.12316000  0.87598000  0.13587000  1
  O  O78  1  0.12316000  0.12402000  0.86413000  1
  O  O79  1  0.87684000  0.37598000  0.86413000  1
  O  O80  1  0.62316000  0.87598000  0.36413000  1
  O  O81  1  0.37684000  0.62402000  0.36413000  1
  O  O82  1  0.37684000  0.37598000  0.63587000  1
  O  O83  1  0.62316000  0.12402000  0.63587000  1
  O  O84  1  0.12316000  0.37598000  0.86413000  1
  O  O85  1  0.87684000  0.12402000  0.86413000  1
  O  O86  1  0.87684000  0.87598000  0.13587000  1
  O  O87  1  0.12316000  0.62402000  0.13587000  1
  O  O88  1  0.34783000  0.06309190  0.75737000  1
  O  O89  1  0.65217000  0.43690810  0.75737000  1
  O  O90  1  0.65217000  0.56309190  0.24263000  1
  O  O91  1  0.34783000  0.93690810  0.24263000  1
  O  O92  1  0.84783000  0.56309190  0.25737000  1
  O  O93  1  0.15217000  0.93690810  0.25737000  1
  O  O94  1  0.15217000  0.06309190  0.74263000  1
  O  O95  1  0.84783000  0.43690810  0.74263000  1
  O  O96  1  0.65217000  0.93690810  0.24263000  1
  O  O97  1  0.34783000  0.56309190  0.24263000  1
  O  O98  1  0.34783000  0.43690810  0.75737000  1
  O  O99  1  0.65217000  0.06309190  0.75737000  1
  O  O100  1  0.15217000  0.43690810  0.74263000  1
  O  O101  1  0.84783000  0.06309190  0.74263000  1
  O  O102  1  0.84783000  0.93690810  0.25737000  1
  O  O103  1  0.15217000  0.56309190  0.25737000  1
  O  O104  1  0.26814000  0.05582000  0.89328000  1
  O  O105  1  0.73186000  0.44418000  0.89328000  1
  O  O106  1  0.73186000  0.55582000  0.10672000  1
  O  O107  1  0.26814000  0.94418000  0.10672000  1
  O  O108  1  0.76814000  0.55582000  0.39328000  1
  O  O109  1  0.23186000  0.94418000  0.39328000  1
  O  O110  1  0.23186000  0.05582000  0.60672000  1
  O  O111  1  0.76814000  0.44418000  0.60672000  1
  O  O112  1  0.73186000  0.94418000  0.10672000  1
  O  O113  1  0.26814000  0.55582000  0.10672000  1
  O  O114  1  0.26814000  0.44418000  0.89328000  1
  O  O115  1  0.73186000  0.05582000  0.89328000  1
  O  O116  1  0.23186000  0.44418000  0.60672000  1
  O  O117  1  0.76814000  0.05582000  0.60672000  1
  O  O118  1  0.76814000  0.94418000  0.39328000  1
  O  O119  1  0.23186000  0.55582000  0.39328000  1
  O  O120  1  0.25000000  0.11754000  0.75000000  1
  O  O121  1  0.75000000  0.38246000  0.75000000  1
  O  O122  1  0.75000000  0.61754000  0.25000000  1
  O  O123  1  0.25000000  0.88246000  0.25000000  1
  O  O124  1  0.75000000  0.88246000  0.25000000  1
  O  O125  1  0.25000000  0.61754000  0.25000000  1
  O  O126  1  0.25000000  0.38246000  0.75000000  1
  O  O127  1  0.75000000  0.11754000  0.75000000  1
  C  C128  1  0.24978000  0.15304000  0.47821300  1
  C  C129  1  0.75022000  0.34696000  0.47821300  1
  C  C130  1  0.75022000  0.65304000  0.52178700  1
  C  C131  1  0.24978000  0.84696000  0.52178700  1
  C  C132  1  0.74978000  0.65304000  0.97821300  1
  C  C133  1  0.25022000  0.84696000  0.97821300  1
  C  C134  1  0.25022000  0.15304000  0.02178700  1
  C  C135  1  0.74978000  0.34696000  0.02178700  1
  C  C136  1  0.75022000  0.84696000  0.52178700  1
  C  C137  1  0.24978000  0.65304000  0.52178700  1
  C  C138  1  0.24978000  0.34696000  0.47821300  1
  C  C139  1  0.75022000  0.15304000  0.47821300  1
  C  C140  1  0.25022000  0.34696000  0.02178700  1
  C  C141  1  0.74978000  0.15304000  0.02178700  1
  C  C142  1  0.74978000  0.84696000  0.97821300  1
  C  C143  1  0.25022000  0.65304000  0.97821300  1
  C  C144  1  0.25011000  0.17324000  0.35911300  1
  C  C145  1  0.74989000  0.32676000  0.35911300  1
  C  C146  1  0.74989000  0.67324000  0.64088700  1
  C  C147  1  0.25011000  0.82676000  0.64088700  1
  C  C148  1  0.75011000  0.67324000  0.85911300  1
  C  C149  1  0.24989000  0.82676000  0.85911300  1
  C  C150  1  0.24989000  0.17324000  0.14088700  1
  C  C151  1  0.75011000  0.32676000  0.14088700  1
  C  C152  1  0.74989000  0.82676000  0.64088700  1
  C  C153  1  0.25011000  0.67324000  0.64088700  1
  C  C154  1  0.25011000  0.32676000  0.35911300  1
  C  C155  1  0.74989000  0.17324000  0.35911300  1
  C  C156  1  0.24989000  0.32676000  0.14088700  1
  C  C157  1  0.75011000  0.17324000  0.14088700  1
  C  C158  1  0.75011000  0.82676000  0.85911300  1
  C  C159  1  0.24989000  0.67324000  0.85911300  1
  C  C160  1  0.25000000  0.15696000  0.25000000  1
  C  C161  1  0.75000000  0.34304000  0.25000000  1
  C  C162  1  0.75000000  0.65696000  0.75000000  1
  C  C163  1  0.25000000  0.84304000  0.75000000  1
  C  C164  1  0.75000000  0.84304000  0.75000000  1
  C  C165  1  0.25000000  0.65696000  0.75000000  1
  C  C166  1  0.25000000  0.34304000  0.25000000  1
  C  C167  1  0.75000000  0.15696000  0.25000000  1
  H  H168  1  0.25000000  0.13210000  0.25000000  1
  H  H169  1  0.75000000  0.36790000  0.25000000  1
  H  H170  1  0.75000000  0.63210000  0.75000000  1
  H  H171  1  0.25000000  0.86790000  0.75000000  1
  H  H172  1  0.75000000  0.86790000  0.75000000  1
  H  H173  1  0.25000000  0.63210000  0.75000000  1
  H  H174  1  0.25000000  0.36790000  0.25000000  1
  H  H175  1  0.75000000  0.13210000  0.25000000  1
  C  C176  1  0.25241000  0.21074000  0.35581500  1
  C  C177  1  0.74759000  0.28926000  0.35581500  1
  C  C178  1  0.74759000  0.71074000  0.64418500  1
  C  C179  1  0.25241000  0.78926000  0.64418500  1
  C  C180  1  0.75241000  0.71074000  0.85581500  1
  C  C181  1  0.24759000  0.78926000  0.85581500  1
  C  C182  1  0.24759000  0.21074000  0.14418500  1
  C  C183  1  0.75241000  0.28926000  0.14418500  1
  C  C184  1  0.74759000  0.78926000  0.64418500  1
  C  C185  1  0.25241000  0.71074000  0.64418500  1
  C  C186  1  0.25241000  0.28926000  0.35581500  1
  C  C187  1  0.74759000  0.21074000  0.35581500  1
  C  C188  1  0.24759000  0.28926000  0.14418500  1
  C  C189  1  0.75241000  0.21074000  0.14418500  1
  C  C190  1  0.75241000  0.78926000  0.85581500  1
  C  C191  1  0.24759000  0.71074000  0.85581500  1
  H  H192  1  0.25580000  0.22280000  0.43050000  1
  H  H193  1  0.74420000  0.27720000  0.43050000  1
  H  H194  1  0.74420000  0.72280000  0.56950000  1
  H  H195  1  0.25580000  0.77720000  0.56950000  1
  H  H196  1  0.75580000  0.72280000  0.93050000  1
  H  H197  1  0.24420000  0.77720000  0.93050000  1
  H  H198  1  0.24420000  0.22280000  0.06950000  1
  H  H199  1  0.75580000  0.27720000  0.06950000  1
  H  H200  1  0.74420000  0.77720000  0.56950000  1
  H  H201  1  0.25580000  0.72280000  0.56950000  1
  H  H202  1  0.25580000  0.27720000  0.43050000  1
  H  H203  1  0.74420000  0.22280000  0.43050000  1
  H  H204  1  0.24420000  0.27720000  0.06950000  1
  H  H205  1  0.75580000  0.22280000  0.06950000  1
  H  H206  1  0.75580000  0.77720000  0.93050000  1
  H  H207  1  0.24420000  0.72280000  0.93050000  1
  C  C208  1  0.25000000  0.23036000  0.25000000  1
  C  C209  1  0.75000000  0.26964000  0.25000000  1
  C  C210  1  0.75000000  0.73036000  0.75000000  1
  C  C211  1  0.25000000  0.76964000  0.75000000  1
  C  C212  1  0.75000000  0.76964000  0.75000000  1
  C  C213  1  0.25000000  0.73036000  0.75000000  1
  C  C214  1  0.25000000  0.26964000  0.25000000  1
  C  C215  1  0.75000000  0.23036000  0.25000000  1
  C  C216  1  0.38158000  0.15595000  0.66521600  1
  C  C217  1  0.61842000  0.34405000  0.66521600  1
  C  C218  1  0.61842000  0.65595000  0.33478400  1
  C  C219  1  0.38158000  0.84405000  0.33478400  1
  C  C220  1  0.88158000  0.65595000  0.16521600  1
  C  C221  1  0.11842000  0.84405000  0.16521600  1
  C  C222  1  0.11842000  0.15595000  0.83478400  1
  C  C223  1  0.88158000  0.34405000  0.83478400  1
  C  C224  1  0.61842000  0.84405000  0.33478400  1
  C  C225  1  0.38158000  0.65595000  0.33478400  1
  C  C226  1  0.38158000  0.34405000  0.66521600  1
  C  C227  1  0.61842000  0.15595000  0.66521600  1
  C  C228  1  0.11842000  0.34405000  0.83478400  1
  C  C229  1  0.88158000  0.15595000  0.83478400  1
  C  C230  1  0.88158000  0.84405000  0.16521600  1
  C  C231  1  0.11842000  0.65595000  0.16521600  1
  C  C232  1  0.44318000  0.17455000  0.66361600  1
  C  C233  1  0.55682000  0.32545000  0.66361600  1
  C  C234  1  0.55682000  0.67455000  0.33638400  1
  C  C235  1  0.44318000  0.82545000  0.33638400  1
  C  C236  1  0.94318000  0.67455000  0.16361600  1
  C  C237  1  0.05682000  0.82545000  0.16361600  1
  C  C238  1  0.05682000  0.17455000  0.83638400  1
  C  C239  1  0.94318000  0.32545000  0.83638400  1
  C  C240  1  0.55682000  0.82545000  0.33638400  1
  C  C241  1  0.44318000  0.67455000  0.33638400  1
  C  C242  1  0.44318000  0.32545000  0.66361600  1
  C  C243  1  0.55682000  0.17455000  0.66361600  1
  C  C244  1  0.05682000  0.32545000  0.83638400  1
  C  C245  1  0.94318000  0.17455000  0.83638400  1
  C  C246  1  0.94318000  0.82545000  0.16361600  1
  C  C247  1  0.05682000  0.67455000  0.16361600  1
  C  C248  1  0.44328000  0.21104000  0.67330000  1
  C  C249  1  0.55672000  0.28896000  0.67330000  1
  C  C250  1  0.55672000  0.71104000  0.32670000  1
  C  C251  1  0.44328000  0.78896000  0.32670000  1
  C  C252  1  0.94328000  0.71104000  0.17330000  1
  C  C253  1  0.05672000  0.78896000  0.17330000  1
  C  C254  1  0.05672000  0.21104000  0.82670000  1
  C  C255  1  0.94328000  0.28896000  0.82670000  1
  C  C256  1  0.55672000  0.78896000  0.32670000  1
  C  C257  1  0.44328000  0.71104000  0.32670000  1
  C  C258  1  0.44328000  0.28896000  0.67330000  1
  C  C259  1  0.55672000  0.21104000  0.67330000  1
  C  C260  1  0.05672000  0.28896000  0.82670000  1
  C  C261  1  0.94328000  0.21104000  0.82670000  1
  C  C262  1  0.94328000  0.78896000  0.17330000  1
  C  C263  1  0.05672000  0.71104000  0.17330000  1
  H  H264  1  0.40510000  0.22360000  0.67180000  1
  H  H265  1  0.59490000  0.27640000  0.67180000  1
  H  H266  1  0.59490000  0.72360000  0.32820000  1
  H  H267  1  0.40510000  0.77640000  0.32820000  1
  H  H268  1  0.90510000  0.72360000  0.17180000  1
  H  H269  1  0.09490000  0.77640000  0.17180000  1
  H  H270  1  0.09490000  0.22360000  0.82820000  1
  H  H271  1  0.90510000  0.27640000  0.82820000  1
  H  H272  1  0.59490000  0.77640000  0.32820000  1
  H  H273  1  0.40510000  0.72360000  0.32820000  1
  H  H274  1  0.40510000  0.27640000  0.67180000  1
  H  H275  1  0.59490000  0.22360000  0.67180000  1
  H  H276  1  0.09490000  0.27640000  0.82820000  1
  H  H277  1  0.90510000  0.22360000  0.82820000  1
  H  H278  1  0.90510000  0.77640000  0.17180000  1
  H  H279  1  0.09490000  0.72360000  0.17180000  1
  C  C280  1  0.50000000  0.22866000  0.68240000  1
  C  C281  1  0.50000000  0.27134000  0.68240000  1
  C  C282  1  0.50000000  0.72866000  0.31760000  1
  C  C283  1  0.50000000  0.77134000  0.31760000  1
  C  C284  1  0.00000000  0.72866000  0.18240000  1
  C  C285  1  0.00000000  0.77134000  0.18240000  1
  C  C286  1  0.00000000  0.22866000  0.81760000  1
  C  C287  1  0.00000000  0.27134000  0.81760000  1
  C  C288  1  0.50000000  0.15526000  0.66220000  1
  C  C289  1  0.50000000  0.34474000  0.66220000  1
  C  C290  1  0.50000000  0.65526000  0.33780000  1
  C  C291  1  0.50000000  0.84474000  0.33780000  1
  C  C292  1  0.00000000  0.65526000  0.16220000  1
  C  C293  1  0.00000000  0.84474000  0.16220000  1
  C  C294  1  0.00000000  0.15526000  0.83780000  1
  C  C295  1  0.00000000  0.34474000  0.83780000  1
  H  H296  1  0.50000000  0.13040000  0.65970000  1
  H  H297  1  0.50000000  0.36960000  0.65970000  1
  H  H298  1  0.50000000  0.63040000  0.34030000  1
  H  H299  1  0.50000000  0.86960000  0.34030000  1
  H  H300  1  0.00000000  0.63040000  0.15970000  1
  H  H301  1  0.00000000  0.86960000  0.15970000  1
  H  H302  1  0.00000000  0.13040000  0.84030000  1
  H  H303  1  0.00000000  0.36960000  0.84030000  1
  C  C304  1  0.32555000  0.05023000  0.85441100  1
  C  C305  1  0.67445000  0.44977000  0.85441100  1
  C  C306  1  0.67445000  0.55023000  0.14558900  1
  C  C307  1  0.32555000  0.94977000  0.14558900  1
  C  C308  1  0.82555000  0.55023000  0.35441100  1
  C  C309  1  0.17445000  0.94977000  0.35441100  1
  C  C310  1  0.17445000  0.05023000  0.64558900  1
  C  C311  1  0.82555000  0.44977000  0.64558900  1
  C  C312  1  0.67445000  0.94977000  0.14558900  1
  C  C313  1  0.32555000  0.55023000  0.14558900  1
  C  C314  1  0.32555000  0.44977000  0.85441100  1
  C  C315  1  0.67445000  0.05023000  0.85441100  1
  C  C316  1  0.17445000  0.44977000  0.64558900  1
  C  C317  1  0.82555000  0.05023000  0.64558900  1
  C  C318  1  0.82555000  0.94977000  0.35441100  1
  C  C319  1  0.17445000  0.55023000  0.35441100  1
  C  C320  1  0.36325000  0.02473000  0.92901100  1
  C  C321  1  0.63675000  0.47527000  0.92901100  1
  C  C322  1  0.63675000  0.52473000  0.07098900  1
  C  C323  1  0.36325000  0.97527000  0.07098900  1
  C  C324  1  0.86325000  0.52473000  0.42901100  1
  C  C325  1  0.13675000  0.97527000  0.42901100  1
  C  C326  1  0.13675000  0.02473000  0.57098900  1
  C  C327  1  0.86325000  0.47527000  0.57098900  1
  C  C328  1  0.63675000  0.97527000  0.07098900  1
  C  C329  1  0.36325000  0.52473000  0.07098900  1
  C  C330  1  0.36325000  0.47527000  0.92901100  1
  C  C331  1  0.63675000  0.02473000  0.92901100  1
  C  C332  1  0.13675000  0.47527000  0.57098900  1
  C  C333  1  0.86325000  0.02473000  0.57098900  1
  C  C334  1  0.86325000  0.97527000  0.42901100  1
  C  C335  1  0.13675000  0.52473000  0.42901100  1
  C  C336  1  0.33158000  0.00000000  0.00000000  1
  C  C337  1  0.66842000  0.50000000  0.00000000  1
  C  C338  1  0.83158000  0.50000000  0.50000000  1
  C  C339  1  0.16842000  0.00000000  0.50000000  1
  C  C340  1  0.66842000  0.00000000  0.00000000  1
  C  C341  1  0.33158000  0.50000000  0.00000000  1
  C  C342  1  0.16842000  0.50000000  0.50000000  1
  C  C343  1  0.83158000  0.00000000  0.50000000  1
  H  H344  1  0.28710000  0.00000000  0.00000000  1
  H  H345  1  0.71290000  0.50000000  0.00000000  1
  H  H346  1  0.78710000  0.50000000  0.50000000  1
  H  H347  1  0.21290000  0.00000000  0.50000000  1
  H  H348  1  0.71290000  0.00000000  0.00000000  1
  H  H349  1  0.28710000  0.50000000  0.00000000  1
  H  H350  1  0.21290000  0.50000000  0.50000000  1
  H  H351  1  0.78710000  0.00000000  0.50000000  1
  C  C352  1  0.42966000  0.02503000  0.92801100  1
  C  C353  1  0.57034000  0.47497000  0.92801100  1
  C  C354  1  0.57034000  0.52503000  0.07198900  1
  C  C355  1  0.42966000  0.97497000  0.07198900  1
  C  C356  1  0.92966000  0.52503000  0.42801100  1
  C  C357  1  0.07034000  0.97497000  0.42801100  1
  C  C358  1  0.07034000  0.02503000  0.57198900  1
  C  C359  1  0.92966000  0.47497000  0.57198900  1
  C  C360  1  0.57034000  0.97497000  0.07198900  1
  C  C361  1  0.42966000  0.52503000  0.07198900  1
  C  C362  1  0.42966000  0.47497000  0.92801100  1
  C  C363  1  0.57034000  0.02503000  0.92801100  1
  C  C364  1  0.07034000  0.47497000  0.57198900  1
  C  C365  1  0.92966000  0.02503000  0.57198900  1
  C  C366  1  0.92966000  0.97497000  0.42801100  1
  C  C367  1  0.07034000  0.52503000  0.42801100  1
  H  H368  1  0.45120000  0.04170000  0.88010000  1
  H  H369  1  0.54880000  0.45830000  0.88010000  1
  H  H370  1  0.54880000  0.54170000  0.11990000  1
  H  H371  1  0.45120000  0.95830000  0.11990000  1
  H  H372  1  0.95120000  0.54170000  0.38010000  1
  H  H373  1  0.04880000  0.95830000  0.38010000  1
  H  H374  1  0.04880000  0.04170000  0.61990000  1
  H  H375  1  0.95120000  0.45830000  0.61990000  1
  H  H376  1  0.54880000  0.95830000  0.11990000  1
  H  H377  1  0.45120000  0.54170000  0.11990000  1
  H  H378  1  0.45120000  0.45830000  0.88010000  1
  H  H379  1  0.54880000  0.04170000  0.88010000  1
  H  H380  1  0.04880000  0.45830000  0.61990000  1
  H  H381  1  0.95120000  0.04170000  0.61990000  1
  H  H382  1  0.95120000  0.95830000  0.38010000  1
  H  H383  1  0.04880000  0.54170000  0.38010000  1
  C  C384  1  0.46477000  0.00000000  0.00000000  1
  C  C385  1  0.53523000  0.50000000  0.00000000  1
  C  C386  1  0.96477000  0.50000000  0.50000000  1
  C  C387  1  0.03523000  0.00000000  0.50000000  1
  C  C388  1  0.53523000  0.00000000  0.00000000  1
  C  C389  1  0.46477000  0.50000000  0.00000000  1
  C  C390  1  0.03523000  0.50000000  0.50000000  1
  C  C391  1  0.96477000  0.00000000  0.50000000  1
  O  O392  1  0.25000000  0.22333000  0.75000000  1
  O  O393  1  0.75000000  0.27667000  0.75000000  1
  O  O394  1  0.75000000  0.72333000  0.25000000  1
  O  O395  1  0.25000000  0.77667000  0.25000000  1
  O  O396  1  0.75000000  0.77667000  0.25000000  1
  O  O397  1  0.25000000  0.72333000  0.25000000  1
  O  O398  1  0.25000000  0.27667000  0.75000000  1
  O  O399  1  0.75000000  0.22333000  0.75000000  1
  O  O400  1  0.15274000  0.06442000  0.00159000  1
  O  O401  1  0.84726000  0.43558000  0.00159000  1
  O  O402  1  0.84726000  0.56442000  0.99841000  1
  O  O403  1  0.15274000  0.93558000  0.99841000  1
  O  O404  1  0.65274000  0.56442000  0.50159000  1
  O  O405  1  0.34726000  0.93558000  0.50159000  1
  O  O406  1  0.34726000  0.06442000  0.49841000  1
  O  O407  1  0.65274000  0.43558000  0.49841000  1
  O  O408  1  0.84726000  0.93558000  0.99841000  1
  O  O409  1  0.15274000  0.56442000  0.99841000  1
  O  O410  1  0.15274000  0.43558000  0.00159000  1
  O  O411  1  0.84726000  0.06442000  0.00159000  1
  O  O412  1  0.34726000  0.43558000  0.49841000  1
  O  O413  1  0.65274000  0.06442000  0.49841000  1
  O  O414  1  0.65274000  0.93558000  0.50159000  1
  O  O415  1  0.34726000  0.56442000  0.50159000  1
